*Heading
** Job name: thermal Model name: thermal
** Generated by: Abaqus/CAE 2022
*Preprint, echo=NO, model=NO, history=NO, contact=NO
**
** PARTS
**
*Part, name=Part-1
*Node
      1,   41.3793106,   378.746277
      2,          40.,   366.121429
      3,  -368.299988,           0.
      4,         -40.,   366.121429
      5,        -381.,           0.
      6,  -41.3793106,   378.746277
      7,  -4.94843817,    374.23999
      8,  -5.21472311,    374.23999
      9,  -5.35903168,    374.23999
     10,  -6.12168837,    372.23999
     11,  -6.29164696,    372.23999
     12,  -5.83385754,    372.23999
     13,  -6.84294796,    370.23999
     14,  -7.22426224,    370.23999
     15,  -6.59855509,    370.23999
     16,  -7.32426643,   370.025543
     17,  -6.83983994,   369.834747
     18,  -5.85384178,   365.808929
     19,  -4.70625353,   368.269928
     20,  -8.17117214,   368.209351
** ... 21856 like lines cut
*Element, type=DC2D8
   1,     1,   112,  1860,  1127,  7529,  7530,  7531,  7532
   2,   112,   113,  1861,  1860,  7533,  7534,  7535,  7530
   3,   113,     2,   114,  1861,  7536,  7537,  7538,  7534
   4,  1127,  1860,  1862,  1126,  7531,  7539,  7540,  7541
   5,  1860,  1861,  1863,  1862,  7535,  7542,  7543,  7539
   6,  1861,   114,   115,  1863,  7538,  7544,  7545,  7542
   7,  1126,  1862,  1864,  1125,  7540,  7546,  7547,  7548
   8,  1862,  1863,  1865,  1864,  7543,  7549,  7550,  7546
   9,  1863,   115,   116,  1865,  7545,  7551,  7552,  7549
  10,  1125,  1864,  1866,  1124,  7547,  7553,  7554,  7555
  11,  1864,  1865,  1867,  1866,  7550,  7556,  7557,  7553
  12,  1865,   116,   117,  1867,  7552,  7558,  7559,  7556
  13,  1124,  1866,  1868,  1123,  7554,  7560,  7561,  7562
  14,  1866,  1867,  1869,  1868,  7557,  7563,  7564,  7560
  15,  1867,   117,   118,  1869,  7559,  7565,  7566,  7563
  16,  1123,  1868,  1870,  1122,  7561,  7567,  7568,  7569
  17,  1868,  1869,  1871,  1870,  7564,  7570,  7571,  7567
  18,  1869,   118,   119,  1871,  7566,  7572,  7573,  7570
  19,  1122,  1870,  1872,  1121,  7568,  7574,  7575,  7576
  20,  1870,  1871,  1873,  1872,  7571,  7577,  7578,  7574
** ... 6800 like lines cut
*Nset, nset=All, generate
     1,  21876,      1
*Elset, elset=All, generate
    1,  6820,     1
*Nset, nset=Base
     1,     2,     3,     4,     5,     6,     7,     8,     9,    10,    11,    12,    13,    14,    15,    16
    17,    22,    23,    24,    27,    28,    34,    35,    36,    37,    38,    39,    40,    41,    42,    43
    44,    45,    46,    47,    48,    49,    78,    79,    80,    81,    82,    83,    84,    85,    86,    87
    88,    89,    90,    91,    92,    93,    94,    95,    96,    97,    98,    99,   100,   101,   102,   103
   104,   105,   106,   107,   112,   113,   114,   115,   116,   117,   118,   119,   120,   121,   122,   123
   124,   125,   126,   127,   128,   129,   130,   131,   132,   133,   134,   135,   136,   137,   138,   139
   140,   141,   142,   143,   144,   145,   146,   147,   148,   149,   150,   151,   152,   153,   154,   155
   156,   157,   158,   159,   160,   161,   162,   163,   164,   165,   166,   167,   168,   169,   170,   171
   172,   173,   174,   175,   176,   177,   178,   179,   180,   181,   182,   183,   184,   185,   186,   187
   188,   189,   190,   191,   192,   193,   194,   195,   196,   197,   198,   199,   200,   201,   202,   203
   204,   205,   206,   207,   208,   209,   210,   211,   212,   213,   214,   215,   216,   217,   218,   219
   220,   221,   222,   223,   224,   225,   226,   227,   228,   229,   230,   231,   232,   233,   234,   235
   236,   237,   238,   239,   240,   241,   242,   243,   244,   245,   246,   247,   248,   249,   250,   251
   252,   253,   254,   255,   256,   257,   258,   259,   260,   261,   262,   263,   264,   265,   266,   267
   268,   269,   270,   271,   272,   273,   274,   275,   276,   277,   278,   279,   280,   281,   282,   283
   284,   285,   286,   287,   288,   289,   290,   291,   292,   293,   294,   295,   296,   297,   298,   299
   300,   301,   302,   303,   304,   305,   306,   307,   308,   309,   310,   311,   312,   313,   314,   315
   316,   317,   318,   319,   320,   321,   322,   323,   324,   325,   326,   327,   328,   329,   330,   331
   332,   333,   334,   335,   336,   337,   338,   339,   340,   341,   342,   343,   344,   345,   346,   347
   348,   349,   350,   351,   352,   353,   354,   355,   356,   357,   358,   359,   360,   361,   362,   363
** ... 1011 like lines cut
*Elset, elset=Base
    1,    2,    3,    4,    5,    6,    7,    8,    9,   10,   11,   12,   13,   14,   15,   16
   17,   18,   19,   20,   21,   22,   23,   24,   25,   26,   27,   28,   29,   30,   31,   32
   33,   34,   35,   36,   37,   38,   39,   40,   41,   42,   43,   44,   45,   46,   47,   48
   49,   50,   51,   52,   53,   54,   55,   56,   57,   58,   59,   60,   61,   62,   63,   64
   65,   66,   67,   68,   69,   70,   71,   72,   73,   74,   75,   76,   77,   78,   79,   80
   81,   82,   83,   84,   85,   86,   87,   88,   89,   90,   91,   92,   93,   94,   95,   96
   97,   98,   99,  100,  101,  102,  103,  104,  105,  106,  107,  108,  109,  110,  111,  112
  113,  114,  115,  116,  117,  118,  119,  120,  121,  122,  123,  124,  125,  126,  127,  128
  129,  130,  131,  132,  133,  134,  135,  136,  137,  138,  139,  140,  141,  142,  143,  144
  145,  146,  147,  148,  149,  150,  151,  152,  153,  154,  155,  156,  157,  158,  159,  160
  161,  162,  163,  164,  165,  166,  167,  168,  169,  170,  171,  172,  173,  174,  175,  176
  177,  178,  179,  180,  181,  182,  183,  184,  185,  186,  187,  188,  189,  190,  191,  192
  193,  194,  195,  196,  197,  198,  199,  200,  201,  202,  203,  204,  205,  206,  207,  208
  209,  210,  211,  212,  213,  214,  215,  216,  217,  218,  219,  220,  221,  222,  223,  224
  225,  226,  227,  228,  229,  230,  231,  232,  233,  234,  235,  236,  237,  238,  239,  240
  241,  242,  243,  244,  245,  246,  247,  248,  249,  250,  251,  252,  253,  254,  255,  256
  257,  258,  259,  260,  261,  262,  263,  264,  265,  266,  267,  268,  269,  270,  271,  272
  273,  274,  275,  276,  277,  278,  279,  280,  281,  282,  283,  284,  285,  286,  287,  288
  289,  290,  291,  292,  293,  294,  295,  296,  297,  298,  299,  300,  301,  302,  303,  304
  305,  306,  307,  308,  309,  310,  311,  312,  313,  314,  315,  316,  317,  318,  319,  320
** ... 295 like lines cut
*Nset, nset=Weld
     7,    12,    15,    17,    18,    19,    20,    21,    22,    25,    26,    27,    28,    29,    30,    31
    32,    33,    36,    37,    38,    39,    40,    42,    44,    45,    47,    49,    50,    51,    52,    53
    54,    55,    56,    57,    58,    59,    60,    61,    62,    63,    64,    65,    66,    67,    68,    69
    70,    71,    72,    73,    74,    75,    76,    77,    91,    93,    95,    96,   108,   109,   110,   111
  1271,  1272,  1273,  1274,  1275,  1281,  1282,  1283,  1284,  1285,  1287,  1288,  1289,  1290,  1291,  1292
  1293,  1294,  1295,  1296,  1297,  1298,  1299,  1300,  1301,  1302,  1303,  1304,  1305,  1306,  1307,  1308
  1309,  1310,  1311,  1312,  1313,  1314,  1315,  1316,  1317,  1372,  1373,  1374,  1375,  1376,  1377,  1378
  1379,  1380,  1381,  1382,  1383,  1384,  1385,  1386,  1387,  1388,  1389,  1390,  1391,  1392,  1393,  1394
  1395,  1396,  1397,  1398,  1399,  1400,  1401,  1402,  1403,  1404,  1405,  1406,  1407,  1408,  1409,  1410
  1411,  1412,  1413,  1414,  1415,  1416,  1417,  1418,  1419,  1420,  1421,  1422,  1423,  1424,  1425,  1426
  1427,  1428,  1429,  1430,  1431,  1432,  1433,  1434,  1435,  1436,  1437,  1438,  1439,  1440,  1441,  1442
  1443,  1444,  1445,  1446,  1447,  1448,  1449,  1450,  1451,  1452,  1453,  1454,  1455,  1456,  1457,  1458
  1459,  1460,  1461,  1517,  1518,  1519,  1520,  1521,  1522,  1571,  1572,  1573,  1574,  1575,  1576,  1577
  1578,  1579,  1580,  1581,  1582,  1583,  1584,  1585,  1586,  1587,  1588,  1589,  1590,  1591,  1592,  1593
  1594,  1595,  1596,  1597,  1598,  1599,  1600,  1601,  1602,  1603,  1604,  1605,  1606,  1607,  1608,  1609
  1610,  1611,  1612,  1613,  1614,  1615,  1616,  1617,  1618,  1619,  1620,  1621,  1622,  1623,  1624,  1625
  1626,  1627,  1628,  1629,  1630,  1631,  1632,  1633,  1634,  1635,  1636,  1637,  1638,  1639,  1640,  1641
  1642,  1643,  1644,  1645,  1646,  1647,  1648,  1649,  1650,  1651,  1652,  1653,  1654,  1655,  1656,  1657
  1658,  1659,  1660,  1661,  1662,  1663,  1664,  1665,  1666,  1667,  1668,  1675,  1676,  1677,  1678,  1679
  1680,  1681,  1682,  1683,  1684,  1685,  1686,  1687,  1688,  1689,  1760,  1761,  1762,  1763,  1764,  1765
** ... 329 like lines cut
*Elset, elset=Weld
 1758, 1759, 1760, 1761, 1762, 1763, 1764, 1765, 1766, 1767, 1768, 1769, 1770, 1771, 1772, 1773
 1774, 1775, 1776, 1777, 1778, 1779, 1780, 1781, 1782, 1783, 1784, 1785, 1786, 1787, 1788, 1789
 1790, 1791, 1792, 1793, 1794, 1795, 1796, 1797, 1798, 1799, 1800, 1801, 1802, 1803, 1804, 1805
 1806, 1807, 1808, 1809, 1810, 1811, 1812, 1813, 1814, 1815, 1816, 1817, 1818, 1819, 1820, 1821
 2003, 2004, 2005, 2006, 2007, 2008, 2009, 2010, 2011, 2012, 2013, 2014, 2015, 2016, 2017, 2018
 2019, 2020, 2021, 2022, 2023, 2024, 2025, 2026, 2027, 2028, 2029, 2030, 2031, 2032, 2033, 2034
 2035, 2036, 2037, 2038, 2039, 2040, 2041, 2042, 2043, 2044, 2045, 2046, 2047, 2048, 2049, 2050
 2051, 2052, 2053, 2054, 2055, 2056, 2057, 2058, 2059, 2060, 2061, 2062, 2063, 2064, 2065, 2066
 2067, 2068, 2069, 2070, 2071, 2072, 2073, 2074, 2075, 2076, 2077, 2078, 2079, 2080, 2081, 2082
 2083, 2084, 2085, 2086, 2087, 2088, 2089, 2090, 2091, 2092, 2093, 2094, 2095, 2096, 2097, 2098
 2099, 2100, 2101, 2102, 2103, 2104, 2105, 2106, 2107, 2108, 2109, 2110, 2111, 2112, 2113, 2114
 2115, 2116, 2117, 2118, 2119, 2120, 2121, 2122, 2123, 2124, 2125, 2126, 2127, 2128, 2129, 2130
 2131, 2132, 2133, 2134, 2135, 2136, 2137, 2138, 2139, 2140, 2141, 2142, 2143, 2144, 2145, 2146
 2147, 2148, 2149, 2150, 2151, 2152, 2153, 2154, 2155, 2156, 2157, 2158, 2159, 2160, 2161, 2162
 2163, 2164, 2165, 2166, 2167, 2168, 2169, 2170, 2171, 2172, 2173, 2174, 2175, 2176, 2177, 2178
 2179, 2180, 2181, 2182, 2183, 2184, 2185, 2186, 2187, 2188, 2189, 2190, 2191, 2192, 2193, 2194
 2195, 2196, 2197, 2198, 2199, 2200, 2201, 2202, 2203, 2204, 2205, 2206, 2207, 2208, 2209, 2210
 2211, 2212, 2213, 2214, 2215, 2216, 2217, 2218, 2219, 2220, 2221, 2222, 2223, 2224, 2225, 2226
 2227, 2228, 2229, 2230, 2231, 2232, 2233, 2234, 2235, 2236, 2237, 2238, 2239, 2240, 2241, 2242
 2243, 2244, 2245, 2246, 2247, 2248, 2249, 2250, 2251, 2252, 2253, 2254, 2255, 2256, 2257, 2258
** ... 92 like lines cut
*Nset, nset=Weld1
    38,    39,    40,    42,    44,    49,    91,    93,    95,    96,   108,   109,   110,   111,  1571,  1572
  1573,  1574,  1575,  1576,  1577,  1578,  1579,  1580,  1581,  1582,  1583,  1584,  1585,  1586,  1587,  1588
  1589,  1590,  1591,  1592,  1647,  1648,  1649,  1650,  1651,  1652,  1653,  1654,  1655,  1656,  1657,  1658
  1659,  1660,  1661,  1662,  1663,  1664,  1665,  1666,  1667,  1668,  1675,  1676,  1677,  1678,  1679,  1680
  1681,  1682,  1683,  1684,  1685,  1686,  1687,  1688,  1689,  1760,  1761,  1762,  1763,  1764,  1765,  1766
  1767,  1768,  1769,  1770,  1771,  1772,  1773,  1774,  1775,  1776,  1777,  1778,  1779,  1780,  1781,  1782
  1783,  1784,  1785,  1786,  1787,  1788,  1789,  1790,  1791,  1792,  1793,  1794,  1795,  1796,  1797,  1798
  1799,  1800,  1801,  1802,  1803,  1804,  1805,  1806,  1807,  1808,  1809,  1810,  1811,  1812,  1813,  1814
  1815,  1816,  1817,  1818,  1819,  1820,  1821,  1822,  1823,  1824,  1825,  1826,  1827,  1828,  1829,  1830
  1831,  1832,  1833,  1834,  1835,  1836,  1837,  1838,  1839,  1840,  1841,  1842,  1843,  1844,  1845,  1846
  1847,  1848,  1849,  1850,  1851,  1852,  1853,  1854,  1855,  1856,  1857,  1858,  1859,  6989,  6990,  6991
  6992,  6993,  6994,  6995,  6996,  6997,  6998,  6999,  7000,  7001,  7002,  7003,  7004,  7005,  7006,  7007
  7008,  7009,  7010,  7011,  7012,  7013,  7014,  7015,  7016,  7017,  7018,  7019,  7020,  7021,  7022,  7023
  7024,  7025,  7026,  7027,  7028,  7029,  7030,  7031,  7032,  7033,  7034,  7035,  7036,  7037,  7038,  7039
  7040,  7041,  7042,  7043,  7044,  7045,  7046,  7047,  7048,  7049,  7050,  7051,  7052,  7053,  7054,  7055
  7056,  7057,  7058,  7059,  7060,  7061,  7062,  7063,  7064,  7065,  7066,  7067,  7068,  7069,  7070,  7071
  7072,  7073,  7074,  7075,  7076,  7077,  7078,  7079,  7080,  7081,  7082,  7083,  7084,  7085,  7086,  7087
  7088,  7089,  7090,  7091,  7092,  7093,  7094,  7095,  7096,  7097,  7098,  7099,  7100,  7101,  7102,  7103
  7104,  7105,  7106,  7107,  7108,  7109,  7110,  7111,  7112,  7113,  7114,  7115,  7116,  7117,  7118,  7119
  7120,  7121,  7122,  7123,  7124,  7125,  7126,  7127,  7128,  7129,  7130,  7131,  7132,  7133,  7134,  7135
** ... 110 like lines cut
*Elset, elset=Weld1, generate
 6169,  6820,     1
*Nset, nset=Weld2
    15,    17,    18,    19,    20,    21,    22,    25,    26,    27,    28,    29,    30,    31,    32,    33
    36,    37,    44,    45,    47,    49,    50,    51,    52,    53,    54,    55,    56,    57,    58,    59
    60,    61,    62,    63,    64,    65,    66,    67,    68,    69,    70,    71,    72,    73,    74,    75
    76,    77,  1281,  1282,  1283,  1284,  1285,  1287,  1288,  1289,  1290,  1291,  1292,  1293,  1294,  1295
  1296,  1297,  1298,  1299,  1300,  1301,  1302,  1303,  1304,  1305,  1306,  1307,  1308,  1309,  1310,  1311
  1312,  1313,  1314,  1315,  1316,  1317,  1372,  1373,  1374,  1375,  1376,  1377,  1378,  1379,  1380,  1381
  1382,  1383,  1384,  1385,  1386,  1387,  1388,  1389,  1390,  1391,  1392,  1393,  1394,  1395,  1396,  1397
  1398,  1399,  1400,  1401,  1402,  1403,  1404,  1405,  1406,  1407,  1408,  1409,  1410,  1411,  1412,  1413
  1414,  1415,  1416,  1417,  1418,  1419,  1420,  1421,  1422,  1423,  1424,  1425,  1426,  1427,  1428,  1429
  1430,  1431,  1432,  1433,  1434,  1435,  1436,  1437,  1438,  1439,  1440,  1441,  1442,  1443,  1444,  1445
  1446,  1447,  1448,  1449,  1450,  1451,  1452,  1453,  1454,  1455,  1456,  1457,  1458,  1459,  1460,  1461
  1517,  1518,  1519,  1520,  1521,  1522,  1593,  1594,  1595,  1596,  1597,  1598,  1599,  1600,  1601,  1602
  1603,  1604,  1605,  1606,  1607,  1608,  1609,  1610,  1611,  1612,  1613,  1614,  1615,  1616,  1617,  1618
  1619,  1620,  1621,  1622,  1623,  1624,  1625,  1626,  1627,  1628,  1629,  1630,  1631,  1632,  1633,  1634
  1635,  1636,  1637,  1638,  1639,  1640,  1641,  1642,  1643,  1644,  1645,  1646,  1647,  1648,  1649,  1650
  1651,  1652,  1653,  1654,  1655,  1656,  1657,  1658,  1659,  1660,  1661,  1662,  1663,  1664,  1665,  1666
  1667,  1668,  3022,  3023,  3024,  3025,  3026,  3027,  3028,  3029,  3030,  3031,  3032,  3033,  3034,  3035
  3036,  3037,  3038,  3039,  3040,  3041,  3042,  3043,  3044,  3045,  3046,  3047,  3048,  3049,  3050,  3051
  3052,  3053,  3054,  3055,  3056,  3057,  3058,  3059,  3060,  3061,  3062,  3063,  3064,  3065,  3066,  3067
  3220,  3221,  3222,  3223,  3224,  3225,  3226,  3227,  3228,  3229,  3230,  3231,  3232,  3233,  3234,  3235
** ... 201 like lines cut
*Elset, elset=Weld2
 1758, 1759, 1760, 1761, 1762, 1763, 1764, 1765, 1766, 1767, 1768, 1769, 1770, 1771, 1772, 1773
 1774, 1775, 1776, 1777, 1778, 1779, 1780, 1781, 1782, 1783, 1784, 1785, 1786, 1787, 1788, 1789
 1790, 1791, 1792, 1793, 1794, 1795, 1796, 1797, 1798, 1799, 1800, 1801, 1802, 1803, 1804, 1805
 1806, 1807, 1808, 1809, 1810, 1811, 1812, 1813, 1814, 1815, 1816, 1817, 1818, 1819, 1820, 1821
 2003, 2004, 2005, 2006, 2007, 2008, 2009, 2010, 2011, 2012, 2013, 2014, 2015, 2016, 2017, 2018
 2019, 2020, 2021, 2022, 2023, 2024, 2025, 2026, 2027, 2028, 2029, 2030, 2031, 2032, 2033, 2034
 2035, 2036, 2037, 2038, 2039, 2040, 2041, 2042, 2043, 2044, 2045, 2046, 2047, 2048, 2049, 2050
 2051, 2052, 2053, 2054, 2055, 2056, 2057, 2058, 2059, 2060, 2061, 2062, 2063, 2064, 2065, 2066
 2067, 2068, 2069, 2070, 2071, 2072, 2073, 2074, 2075, 2076, 2077, 2078, 2079, 2080, 2081, 2082
 2083, 2084, 2085, 2086, 2087, 2088, 2089, 2090, 2091, 2092, 2093, 2094, 2095, 2096, 2097, 2098
 2099, 2100, 2101, 2102, 2103, 2104, 2105, 2106, 2107, 2108, 2109, 2110, 2111, 2112, 2113, 2114
 2115, 2116, 2117, 2118, 2119, 2120, 2121, 2122, 2123, 2124, 2125, 2126, 2127, 2128, 2129, 2130
 2131, 2132, 2133, 2134, 2135, 2136, 2137, 2138, 2139, 2140, 2141, 2142, 2143, 2144, 2145, 2146
 2147, 2148, 2149, 2150, 2151, 2152, 2153, 2154, 2155, 2156, 2157, 2158, 2159, 2160, 2161, 2162
 2163, 2164, 2165, 2166, 2167, 2168, 2169, 2170, 2171, 2172, 2173, 2174, 2175, 2176, 2177, 2178
 2179, 2180, 2181, 2182, 2183, 2184, 2185, 2186, 2187, 2188, 2189, 2190, 2191, 2192, 2193, 2194
 2195, 2196, 2197, 2198, 2199, 2200, 2201, 2202, 2203, 2204, 2205, 2206, 2207, 2208, 2209, 2210
 2211, 2212, 2213, 2214, 2215, 2216, 2217, 2218, 2219, 2220, 2221, 2222, 2223, 2224, 2225, 2226
 2227, 2228, 2229, 2230, 2231, 2232, 2233, 2234, 2235, 2236, 2237, 2238, 2239, 2240, 2241, 2242
 2243, 2244, 2245, 2246, 2247, 2248, 2249, 2250, 2251, 2252, 2253, 2254, 2255, 2256, 2257, 2258
** ... 52 like lines cut
*Nset, nset=edge_seeds_bias
     1,     2,     4,     6,    23,    24,    34,    35,  1318,  1319,  1320,  1321,  1322,  1323,  1324,  1325
  1326,  1327,  1328,  1329,  1361,  1362,  1363,  1364,  1365,  1366,  1367,  1368,  1369,  1370,  1371,  1493
  1494,  1495,  1496,  1497,  1498,  1499,  1500,  1501,  1502,  1503,  1504,  1505,  1506,  1507,  1508,  1509
  1510,  1511,  1512,  1513,  1514,  1515, 11785, 11787, 11796, 11800, 11807, 11811, 11829, 11833, 11905, 11919
 11925, 11928, 11938, 11942, 11968, 11972, 11979, 11981, 11989, 12001, 12059, 12078, 12084, 12102, 12171, 12944
 12954, 12957, 12984, 13030, 13034, 13039, 13059, 13060, 13063, 13074, 13076, 13090, 13100, 13111, 13123, 13126
 13130, 13135, 13158, 13192, 13316, 13320, 13326, 13329
*Elset, elset=edge_seeds_bias
 1822, 1823, 1825, 1827, 1829, 1830, 1835, 1836, 1858, 1863, 1865, 1866, 1869, 1870, 1880, 1881
 1884, 1886, 1888, 1893, 1918, 1928, 1931, 1942, 1996, 2366, 2369, 2370, 2377, 2392, 2393, 2395
 2401, 2402, 2403, 2407, 2408, 2413, 2416, 2421, 2426, 2427, 2429, 2431, 2441, 2457, 2528, 2532
 2535, 2540
*Nset, nset=edge_seeds_coarse
     1,     2,     3,     4,     5,     6,   112,   113,   114,   115,   116,   117,   118,   119,   120,   121
   122,   123,   124,   125,   126,   127,   128,   129,   130,   131,   132,   133,   134,   135,   136,   137
   138,   139,   140,   141,   142,   143,   144,   145,   146,   147,   148,   149,   150,   151,   152,   153
   154,   155,   156,   157,   158,   159,   160,   161,   162,   163,   164,   165,   166,   167,   168,   169
   170,   171,   172,   173,   174,   175,   176,   177,   178,   179,   180,   181,   182,   183,   184,   185
   186,   187,   188,   189,   190,   191,   192,   193,   194,   195,   196,   197,   198,   199,   200,   201
   202,   203,   204,   205,   206,   207,   208,   209,   210,   211,   212,   213,   214,   215,   216,   217
   218,   219,   220,   221,   222,   223,   224,   225,   226,   227,   228,   229,   230,   231,   232,   233
   234,   235,   236,   237,   238,   239,   240,   241,   242,   243,   244,   245,   246,   247,   248,   249
   250,   251,   252,   253,   254,   255,   256,   257,   258,   259,   260,   261,   262,   263,   264,   265
   266,   267,   268,   269,   270,   271,   272,   273,   274,   275,   276,   277,   278,   279,   280,   281
   282,   283,   284,   285,   286,   287,   288,   289,   290,   291,   292,   293,   294,   295,   296,   297
   298,   299,   300,   301,   302,   303,   304,   305,   306,   307,   308,   309,   310,   311,   312,   313
   314,   315,   316,   317,   318,   319,   320,   321,   322,   323,   324,   325,   326,   327,   328,   329
   330,   331,   332,   333,   334,   335,   336,   337,   338,   339,   340,   341,   342,   343,   344,   345
   346,   347,   348,   349,   350,   351,   352,   353,   354,   355,   356,   357,   358,   359,   360,   361
   362,   363,   364,   365,   366,   367,   368,   369,   370,   371,   372,   373,   374,   375,   376,   377
   378,   379,   380,   381,   382,   383,   384,   385,   386,   387,   388,   389,   390,   391,   392,   393
   394,   395,   396,   397,   398,   399,   400,   401,   402,   403,   404,   405,   406,   407,   408,   409
   410,   411,   412,   413,   414,   415,   416,   417,   418,   419,   420,   421,   422,   423,   424,   425
** ... 125 like lines cut
*Elset, elset=edge_seeds_coarse
    1,    2,    3,    4,    6,    7,    9,   10,   12,   13,   15,   16,   18,   19,   21,   22
   24,   25,   27,   28,   30,   31,   33,   34,   36,   37,   39,   40,   42,   43,   45,   46
   48,   49,   51,   52,   54,   55,   57,   58,   60,   61,   63,   64,   66,   67,   69,   70
   72,   73,   75,   76,   78,   79,   81,   82,   84,   85,   87,   88,   90,   91,   93,   94
   96,   97,   99,  100,  102,  103,  105,  106,  108,  109,  111,  112,  114,  115,  117,  118
  120,  121,  123,  124,  126,  127,  129,  130,  132,  133,  135,  136,  138,  139,  141,  142
  144,  145,  147,  148,  150,  151,  153,  154,  156,  157,  159,  160,  162,  163,  165,  166
  168,  169,  171,  172,  174,  175,  177,  178,  180,  181,  183,  184,  186,  187,  189,  190
  192,  193,  195,  196,  198,  199,  201,  202,  204,  205,  207,  208,  210,  211,  213,  214
  216,  217,  219,  220,  222,  223,  225,  226,  228,  229,  231,  232,  234,  235,  237,  238
  240,  241,  243,  244,  246,  247,  249,  250,  252,  253,  255,  256,  258,  259,  261,  262
  264,  265,  267,  268,  270,  271,  273,  274,  276,  277,  279,  280,  282,  283,  285,  286
  288,  289,  291,  292,  294,  295,  297,  298,  300,  301,  303,  304,  306,  307,  309,  310
  312,  313,  315,  316,  318,  319,  321,  322,  324,  325,  327,  328,  330,  331,  333,  334
  336,  337,  339,  340,  342,  343,  345,  346,  348,  349,  351,  352,  354,  355,  357,  358
  360,  361,  363,  364,  366,  367,  369,  370,  372,  373,  375,  376,  378,  379,  381,  382
  384,  385,  387,  388,  390,  391,  393,  394,  396,  397,  399,  400,  402,  403,  405,  406
  408,  409,  411,  412,  414,  415,  417,  418,  420,  421,  423,  424,  426,  427,  429,  430
  432,  433,  435,  436,  438,  439,  441,  442,  444,  445,  447,  448,  450,  451,  453,  454
  456,  457,  459,  460,  462,  463,  465,  466,  468,  469,  471,  472,  474,  475,  477,  478
** ... 53 like lines cut
*Nset, nset=edge_seeds_fine
     7,     8,     9,    10,    11,    12,    13,    14,    15,    16,    17,    18,    19,    20,    21,    22
    23,    24,    25,    26,    27,    28,    29,    30,    31,    32,    33,    34,    35,    36,    37,    38
    39,    40,    41,    42,    43,    44,    45,    46,    47,    48,    49,    50,    51,    52,    53,    54
    55,    56,    57,    58,    59,    60,    61,    62,    63,    64,    65,    66,    67,    68,    69,    70
    71,    72,    73,    74,    75,    76,    77,    78,    79,    80,    81,    82,    83,    84,    85,    86
    87,    88,    89,    90,    91,    92,    93,    94,    95,    96,    97,    98,    99,   100,   101,   102
   103,   104,   105,   106,   107,   108,   109,   110,   111,  1266,  1267,  1268,  1269,  1270,  1271,  1272
  1273,  1274,  1275,  1276,  1277,  1278,  1279,  1280,  1281,  1282,  1283,  1284,  1285,  1286,  1287,  1288
  1289,  1290,  1291,  1292,  1293,  1294,  1295,  1296,  1297,  1298,  1299,  1300,  1301,  1302,  1303,  1304
  1305,  1306,  1307,  1308,  1309,  1310,  1311,  1312,  1313,  1314,  1315,  1316,  1317,  1330,  1331,  1332
  1333,  1334,  1335,  1336,  1337,  1338,  1339,  1340,  1341,  1342,  1343,  1344,  1345,  1346,  1347,  1348
  1349,  1350,  1351,  1352,  1353,  1354,  1355,  1356,  1357,  1358,  1359,  1360,  1372,  1373,  1374,  1375
  1376,  1377,  1378,  1379,  1380,  1381,  1382,  1383,  1384,  1385,  1386,  1387,  1388,  1389,  1390,  1391
  1392,  1393,  1394,  1395,  1396,  1397,  1398,  1399,  1400,  1401,  1402,  1403,  1404,  1405,  1406,  1407
  1408,  1409,  1410,  1411,  1412,  1413,  1414,  1415,  1416,  1417,  1418,  1419,  1420,  1421,  1422,  1423
  1424,  1425,  1426,  1427,  1428,  1429,  1430,  1431,  1432,  1433,  1434,  1435,  1436,  1437,  1438,  1439
  1440,  1441,  1442,  1443,  1444,  1445,  1446,  1447,  1448,  1449,  1450,  1451,  1452,  1453,  1454,  1455
  1456,  1457,  1458,  1459,  1460,  1461,  1462,  1463,  1464,  1465,  1466,  1467,  1468,  1469,  1470,  1471
  1472,  1473,  1474,  1475,  1476,  1477,  1478,  1479,  1480,  1481,  1482,  1483,  1484,  1485,  1486,  1487
  1488,  1489,  1490,  1491,  1492,  1516,  1517,  1518,  1519,  1520,  1521,  1522,  1523,  1524,  1525,  1526
** ... 882 like lines cut
*Elset, elset=edge_seeds_fine
 1732, 1733, 1734, 1735, 1736, 1737, 1738, 1739, 1740, 1741, 1742, 1743, 1744, 1745, 1746, 1747
 1748, 1749, 1750, 1751, 1752, 1753, 1754, 1755, 1756, 1757, 1758, 1759, 1760, 1761, 1762, 1763
 1764, 1765, 1766, 1767, 1768, 1769, 1770, 1771, 1772, 1773, 1774, 1775, 1776, 1777, 1778, 1779
 1780, 1781, 1782, 1783, 1784, 1785, 1786, 1787, 1788, 1789, 1790, 1791, 1792, 1793, 1794, 1795
 1796, 1797, 1798, 1799, 1800, 1801, 1802, 1803, 1804, 1805, 1806, 1807, 1808, 1809, 1810, 1811
 1812, 1813, 1814, 1815, 1816, 1817, 1818, 1819, 1820, 1821, 2003, 2004, 2005, 2006, 2007, 2008
 2009, 2010, 2011, 2012, 2013, 2014, 2015, 2016, 2017, 2018, 2019, 2020, 2021, 2022, 2023, 2024
 2025, 2026, 2027, 2028, 2029, 2030, 2031, 2032, 2033, 2034, 2035, 2036, 2037, 2038, 2039, 2040
 2041, 2042, 2043, 2044, 2045, 2046, 2047, 2048, 2049, 2050, 2051, 2052, 2053, 2054, 2055, 2056
 2057, 2058, 2059, 2060, 2061, 2062, 2063, 2064, 2065, 2066, 2067, 2068, 2069, 2070, 2071, 2072
 2073, 2074, 2075, 2076, 2077, 2078, 2079, 2080, 2081, 2082, 2083, 2084, 2085, 2086, 2087, 2088
 2089, 2090, 2091, 2092, 2093, 2094, 2095, 2096, 2097, 2098, 2099, 2100, 2101, 2102, 2103, 2104
 2105, 2106, 2107, 2108, 2109, 2110, 2111, 2112, 2113, 2114, 2115, 2116, 2117, 2118, 2119, 2120
 2121, 2122, 2123, 2124, 2125, 2126, 2127, 2128, 2129, 2130, 2131, 2132, 2133, 2134, 2135, 2136
 2137, 2138, 2139, 2140, 2141, 2142, 2143, 2144, 2145, 2146, 2147, 2148, 2149, 2150, 2151, 2152
 2153, 2154, 2155, 2156, 2157, 2158, 2159, 2160, 2161, 2162, 2163, 2164, 2165, 2166, 2167, 2168
 2169, 2170, 2171, 2172, 2173, 2174, 2175, 2176, 2177, 2178, 2179, 2180, 2181, 2182, 2183, 2184
 2185, 2186, 2187, 2188, 2189, 2190, 2191, 2192, 2193, 2194, 2195, 2196, 2197, 2198, 2199, 2200
 2201, 2202, 2203, 2204, 2205, 2206, 2207, 2208, 2209, 2210, 2211, 2212, 2213, 2214, 2215, 2216
 2217, 2218, 2219, 2220, 2221, 2222, 2223, 2224, 2225, 2226, 2227, 2228, 2229, 2230, 2231, 2232
** ... 275 like lines cut
*Nset, nset=Excess
    18,    19,    20,    21,    22,    25,    26,    27,    38,    96,  1287,  1288,  1289,  1290,  1291,  1292
  1293,  1294,  1295,  1296,  1297,  1298,  1299,  1300,  1301,  1302,  1303,  1304,  1305,  1306,  1307,  1308
  1309,  1310,  1311,  1312,  1313,  1314,  1315,  1316,  1317,  1372,  1373,  1374,  1375,  1376,  1377,  1378
  1379,  1380,  1381,  1382,  1383,  1384,  1385,  1386,  1387,  1388,  1389,  1390,  1391,  1392,  1393,  1394
  1395,  1396,  1397,  1398,  1399,  1400,  1401,  1402,  1403,  1404,  1405,  1406,  1407,  1408,  1409,  1410
  1411,  1412,  1413,  1414,  1415,  1416,  1417,  1418,  1419,  1420,  1421,  1422,  1423,  1424,  1425,  1426
  1427,  1428,  1429,  1430,  1431,  1432,  1433,  1434,  1435,  1436,  1437,  1438,  1439,  1440,  1441,  1442
  1443,  1444,  1445,  1446,  1447,  1448,  1449,  1450,  1451,  1452,  1453,  1760,  1761,  1762,  1763,  1764
  1765,  1766,  1767,  1768,  1769,  1770,  1771,  1772,  1773,  1774,  1775,  1776,  1777,  1778,  1779,  1780
  1781,  1782,  1783,  1784,  1785,  1786,  1787,  1788,  1789,  1790,  1791,  1792,  1793,  1794,  1795,  1796
  1797,  1798,  1799,  1800,  1801,  1802,  1803,  1804,  1805,  1806,  1807,  1808,  1809,  1810,  1811,  1812
  1813,  1814,  1815,  1816,  1817,  1818,  1819,  1820,  1821,  1822,  1823,  1824,  1825,  1826,  1827,  1828
  1829,  1830,  1831,  1832,  1833,  1834,  1835,  1836,  1837,  1838,  1839,  1840,  1841,  1842,  1843,  1844
  1845,  1846,  1847,  1848,  1849,  1850,  1851,  1852,  1853,  1854,  1855,  1856,  1857,  1858,  1859,  3022
  3023,  3024,  3025,  3026,  3027,  3028,  3029,  3030,  3031,  3032,  3033,  3034,  3035,  3036,  3037,  3038
  3039,  3040,  3041,  3042,  3043,  3044,  3045,  3046,  3047,  3048,  3049,  3050,  3051,  3052,  3053,  3054
  3055,  3056,  3057,  3058,  3059,  3060,  3061,  3062,  3063,  3064,  3065,  3066,  3067,  3220,  3221,  3222
  3223,  3224,  3225,  3226,  3227,  3228,  3229,  3230,  3231,  3232,  3233,  3234,  3235,  3236,  3237,  3238
  3239,  3240,  3241,  3242,  3243,  3244,  3245,  3246,  3247,  3248,  3249,  3250,  3251,  3252,  3253,  3254
  3255,  3256,  3257,  3258,  3259,  3260,  3261,  3262,  3263,  3264,  3265,  3266,  3267,  3268,  3269,  3270
** ... 99 like lines cut
*Elset, elset=Excess
 1758, 1759, 1760, 1761, 1762, 1763, 1764, 1765, 1766, 1767, 1768, 1769, 1770, 1771, 1772, 1773
 1774, 1775, 1776, 1777, 1778, 1779, 1780, 1781, 1782, 1783, 1784, 1785, 1786, 1787, 1788, 1789
 1790, 1791, 1792, 1793, 1794, 1795, 1796, 1797, 1798, 1799, 1800, 1801, 1802, 1803, 1804, 1805
 1806, 1807, 1808, 1809, 1810, 1811, 1812, 1813, 1814, 1815, 1816, 1817, 1818, 1819, 1820, 1821
 2003, 2004, 2005, 2006, 2007, 2008, 2009, 2010, 2011, 2012, 2013, 2014, 2015, 2016, 2017, 2018
 2019, 2020, 2021, 2022, 2023, 2024, 2025, 2026, 2027, 2028, 2029, 2030, 2031, 2032, 2033, 2034
 2035, 2036, 2037, 2038, 2039, 2040, 2041, 2042, 2043, 2044, 2045, 2046, 2047, 2048, 2049, 2050
 2051, 2052, 2053, 2054, 2055, 2056, 2057, 2058, 2059, 2060, 2061, 2062, 2063, 2064, 2065, 2066
 2067, 2068, 2069, 2070, 2071, 2072, 2073, 2074, 2075, 2076, 2077, 2078, 2079, 2080, 2081, 2082
 2083, 2084, 2085, 2086, 2087, 2088, 2089, 2090, 2091, 2092, 2093, 2094, 2095, 2096, 2097, 2098
 2099, 2100, 2101, 2102, 2103, 2104, 2105, 2106, 2107, 2108, 2109, 2110, 2111, 2112, 2113, 2114
 2115, 2116, 2117, 2118, 2119, 2120, 2121, 2122, 2123, 2124, 2125, 2126, 2127, 2128, 2129, 2130
 2131, 2132, 2133, 2134, 2135, 2136, 2137, 2138, 2139, 2140, 2141, 2142, 2143, 2144, 2145, 2146
 2147, 2148, 2149, 2150, 2151, 2152, 2153, 2154, 2155, 2156, 2157, 2158, 2159, 2160, 2161, 2162
 2163, 2164, 2165, 2166, 2167, 2168, 2169, 2170, 2171, 2172, 2173, 2174, 2175, 2176, 2177, 2178
 2179, 2180, 2181, 2182, 2183, 2184, 2185, 2186, 2187, 2188, 2189, 2190, 2191, 2192, 2193, 2194
 2195, 2196, 2197, 2198, 2199, 2200, 2201, 2202, 2203, 2204, 2205, 2206, 2207, 2208, 2209, 2210
 2211, 2212, 2213, 2214, 2215, 2216, 2217, 2218, 2219, 2220, 2221, 2222, 2223, 2224, 2225, 2226
 2227, 2228, 2229, 2230, 2231, 2232, 2233, 2234, 2235, 2236, 2237, 2238, 2239, 2240, 2241, 2242
 2243, 2244, 2245, 2246, 2247, 2248, 2249, 2250, 2251, 2252, 2253, 2254, 2255, 2256, 2257, 2258
** ... 16 like lines cut
*Nset, nset=Crack1a
    97,    98,  1739,  1740,  1741,  1742,  1743, 17657, 18506, 18629, 18638, 19563, 19616
*Elset, elset=Crack1a
 4708, 4952, 4964, 4999, 5001, 5004, 5276, 5322, 5363, 5365, 5366, 5367
*Nset, nset=Crack1b
    98,   100,  1744,  1745,  1746,  1747,  1748, 17670, 17676, 18491, 18502, 18614, 18618
*Elset, elset=Crack1b
 4712, 4713, 4958, 4960, 4962, 4995, 4996, 4997, 4998, 5323, 5324, 5325
*Nset, nset=Crack2a
    14,    16,    20,    21,    28,  1302,  1303,  1455,  1456,  1516, 11636, 11646, 11690, 11694, 12866, 12896
 12911, 13340, 13342
*Elset, elset=Crack2a
 1757, 1760, 1773, 1774, 1817, 1818, 1821, 2331, 2340, 2349, 2555, 2556, 2560, 2565, 2566, 4725
 4737, 4738
*Nset, nset=Crack2b
    11,    14,  1276,  1277,  1278,  1279,  1280, 11606, 11611, 11616, 11621, 11626, 11631
*Elset, elset=Crack2b
 1745, 1747, 1749, 1751, 1753, 1755, 4739, 4740, 4741, 5288, 5289, 5344
*Nset, nset=Crack2c
     9,    11,  1266,  1267,  1268,  1269,  1270, 11576, 11581, 11586, 11591, 11596, 11601
*Elset, elset=Crack2c
 1733, 1735, 1737, 1739, 1741, 1743, 4742, 4756, 5290, 5291, 5292, 5346
*Nset, nset=Crack1c
   100,   102,  1749,  1750,  1751,  1752,  1753, 17947, 17951, 17956, 18596, 18664, 18773
*Elset, elset=Crack1c
 4799, 4800, 4801, 4802, 4989, 5015, 5047, 5326, 5327, 5328, 5329, 5330
** Section: Section-1
*Solid Section, elset=All, material=Base_X60_1_umatht
,
*End Part
**  
**
** ASSEMBLY
**
*Assembly, name=Assembly
**  
*Instance, name=Part-1-1, part=Part-1
*End Instance
**  
*Nset, nset=heating1, instance=Part-1-1
    39,    40,    42,    44,    49,    91,    93,    95,  1571,  1572,  1573,  1574,  1575,  1576,  1577,  1578
  1579,  1580,  1581,  1582,  1583,  1584,  1585,  1586,  1587,  1588,  1589,  1590,  1591,  1592,  1675,  1676
  1677,  1678,  1679,  1680,  1681,  1682,  1683,  1684,  1685,  1686,  1687,  1688,  1689, 13431, 13436, 13439
 13441, 13545, 14183, 14190, 14201, 14269, 14274, 14282, 14285, 14291, 14294, 14297, 14333, 14356, 15106, 15109
 15112, 15113, 15114, 15118, 15140, 15147, 17796, 17798, 17830, 17833, 17836, 17849, 17862, 17869, 17871, 17878
 17893, 19510, 19515, 19516, 19520, 19523, 19666, 19669
*Elset, elset=heating1, instance=Part-1-1
 2584, 2585, 2586, 2587, 2615, 2799, 2801, 2805, 2824, 2826, 2828, 2829, 2831, 2832, 2833, 2843
 2850, 3111, 3112, 3114, 3115, 3116, 3117, 3129, 3133, 4752, 4753, 4763, 4764, 4765, 4769, 4774
 4777, 4778, 4780, 4784, 5293, 5295, 5296, 5298, 5299, 5409, 5412, 6340, 6341, 6342, 6344, 6345
 6346, 6349, 6350, 6355, 6361, 6362, 6368, 6369, 6370, 6373, 6374, 6407, 6434, 6438, 6441, 6444
 6445, 6449, 6450, 6451, 6452, 6454, 6473, 6474, 6475, 6478, 6479, 6480, 6536, 6559, 6560, 6561
 6562, 6563, 6574, 6576, 6614, 6621
*Nset, nset=heating2, instance=Part-1-1
     7,    12,    15,    17,    28,    36,    37,    44,    45,    47,    49,  1271,  1272,  1273,  1274,  1275
  1281,  1282,  1283,  1284,  1285,  1454,  1517,  1518,  1519,  1520,  1521,  1593,  1594,  1595,  1596,  1597
  1598,  1599,  1600,  1601,  1602,  1603,  1604,  1605,  1606,  1607,  1608,  1609,  1610,  1611,  1612,  1613
  1614,  1615,  1647,  1648,  1649,  1650,  1651,  1652,  1653,  1654,  1655,  1656,  1657,  1658,  1659,  1660
  1661,  1662,  1663,  1664,  1665,  1666,  1667,  1668, 11574, 11580, 11585, 11590, 11595, 11600, 11605, 11610
 11615, 11620, 11625, 11630, 11635, 12923, 12928, 13344, 13346, 13353, 13356, 13357, 13358, 13493, 13496, 14239
 14250, 14255, 14266, 14312, 14315, 14321, 14326, 14341, 14347, 14350, 14353, 14358, 14359, 15119, 15121, 15123
 15126, 15128, 15129, 15134, 15152, 16265, 16268, 16280, 16282, 16418, 16423, 16484, 16494, 16565, 16668, 16696
 16710, 16714, 16717, 16719, 16728, 16733, 16734, 16852, 16952, 16956, 16966, 16969, 16978, 16983, 17639
*Elset, elset=heating2, instance=Part-1-1
 1732, 1734, 1736, 1738, 1740, 1742, 1744, 1746, 1748, 1750, 1752, 1754, 1756, 2356, 2361, 2554
 2555, 2557, 2558, 2560, 2561, 2562, 2563, 2600, 2601, 2815, 2818, 2820, 2823, 2837, 2838, 2839
 2841, 2846, 2847, 2848, 2850, 2851, 2852, 3118, 3119, 3120, 3121, 3122, 3123, 3124, 3136, 3999
 4000, 4003, 4004, 4005, 4006, 4007, 4008, 4045, 4046, 4057, 4059, 4061, 4063, 4065, 4066, 4069
 4071, 4072, 4074, 4075, 4076, 4077, 4099, 4130, 4141, 4148, 4149, 4150, 4151, 4152, 4153, 4154
 4155, 4156, 4157, 4160, 4161, 4163, 4168, 4169, 4170, 4171, 4174, 4175, 4176, 4178, 4179, 4189
 4197, 4223, 4232, 4242, 4245, 4250, 4251, 4271, 4273, 4277, 4280, 4284, 4286, 4677, 4726, 4727
 4735, 4769, 5003, 5283, 6102, 6104, 6106, 6372, 6373, 6387, 6388, 6389, 6390, 6404, 6406, 6415
 6455, 6465, 6468, 6469, 6470, 6471, 6472, 6520, 6521, 6534, 6562, 6565, 6570, 6606
*Elset, elset=_outer_cooldown1_S2, internal, instance=Part-1-1
    3,    6,    9,   12,   15,   18,   21,   24,   27,   30,   33,   36,   39,   42,   45,   48
   51,   54,   57,   60,   63,   66,   69,   72,   75,   78,   81,   84,   87,   90,   93,   96
   99,  102,  105,  108,  111,  114,  117,  120,  123,  126,  129,  132,  135,  138,  141,  144
  147,  150,  153,  156,  159,  162,  165,  168,  171,  174,  177,  180,  183,  186,  189,  192
  195,  198,  201,  204,  207,  210,  213,  216,  219,  222,  225,  228,  231,  234,  237,  240
  243,  246,  249,  252,  255,  258,  261,  264,  267,  270,  273,  276,  279,  282,  285,  288
  291,  294,  297,  300,  303,  306,  309,  312,  315,  318,  321,  324,  327,  330,  333,  336
  339,  342,  345,  348,  351,  354,  357,  360,  363,  366,  369,  372,  375,  378,  381,  384
  387,  390,  393,  396,  399,  402,  405,  408,  411,  414,  417,  420,  423,  426,  429,  432
  435,  438,  441,  444,  447,  450,  453,  456,  459,  462,  465,  468,  471,  474,  477,  480
  483,  486,  489,  492,  495,  498,  501,  504,  507,  510,  513,  516,  519,  522,  525,  528
  531,  534,  537,  540,  543,  546,  549,  552,  555,  558,  561,  564,  567,  570,  573,  576
  579,  582,  585,  588,  591,  594,  597,  600,  603,  606,  609,  612,  615,  618,  621,  624
  627,  630,  633,  636,  639,  642,  645,  648,  651,  654,  657,  660,  663,  666,  669,  672
  675,  678,  681,  684,  687,  690,  693,  696,  699,  702,  705,  708,  711,  714,  717,  720
  723,  726,  729,  732,  735,  738,  741,  744,  747,  750,  753,  756,  759,  762,  765,  768
  771,  774,  777,  780,  783,  786,  789,  792,  795,  798,  801,  804,  807,  810,  813,  816
  819,  822,  825,  828,  831,  834,  837,  840,  843,  846,  849,  852,  855,  858,  861,  864
  867,  870,  873,  876,  879,  882,  885,  888,  891,  894,  897,  900,  903,  906,  909,  912
  915,  918,  921,  924,  927,  930,  933,  936,  939,  942,  945,  948,  951,  954,  957,  960
** ... 22 like lines cut
*Elset, elset=_outer_cooldown1_S4, internal, instance=Part-1-1
    1,    4,    7,   10,   13,   16,   19,   22,   25,   28,   31,   34,   37,   40,   43,   46
   49,   52,   55,   58,   61,   64,   67,   70,   73,   76,   79,   82,   85,   88,   91,   94
   97,  100,  103,  106,  109,  112,  115,  118,  121,  124,  127,  130,  133,  136,  139,  142
  145,  148,  151,  154,  157,  160,  163,  166,  169,  172,  175,  178,  181,  184,  187,  190
  193,  196,  199,  202,  205,  208,  211,  214,  217,  220,  223,  226,  229,  232,  235,  238
  241,  244,  247,  250,  253,  256,  259,  262,  265,  268,  271,  274,  277,  280,  283,  286
  289,  292,  295,  298,  301,  304,  307,  310,  313,  316,  319,  322,  325,  328,  331,  334
  337,  340,  343,  346,  349,  352,  355,  358,  361,  364,  367,  370,  373,  376,  379,  382
  385,  388,  391,  394,  397,  400,  403,  406,  409,  412,  415,  418,  421,  424,  427,  430
  433,  436,  439,  442,  445,  448,  451,  454,  457,  460,  463,  466,  469,  472,  475,  478
  481,  484,  487,  490,  493,  496,  499,  502,  505,  508,  511,  514,  517,  520,  523,  526
  529,  532,  535,  538,  541,  544,  547,  550,  553,  556,  559,  562,  565,  568,  571,  574
  577,  580,  583,  586,  589,  592,  595,  598,  601,  604,  607,  610,  613,  616,  619,  622
  625,  628,  631,  634,  637,  640,  643,  646,  649,  652,  655,  658,  661,  664,  667,  670
  673,  676,  679,  682,  685,  688,  691,  694,  697,  700,  703,  706,  709,  712,  715,  718
  721,  724,  727,  730,  733,  736,  739,  742,  745,  748,  751,  754,  757,  760,  763,  766
  769,  772,  775,  778,  781,  784,  787,  790,  793,  796,  799,  802,  805,  808,  811,  814
  817,  820,  823,  826,  829,  832,  835,  838,  841,  844,  847,  850,  853,  856,  859,  862
  865,  868,  871,  874,  877,  880,  883,  886,  889,  892,  895,  898,  901,  904,  907,  910
  913,  916,  919,  922,  925,  928,  931,  934,  937,  940,  943,  946,  949,  952,  955,  958
** ... 21 like lines cut
*Elset, elset=_outer_cooldown1_S3, internal, instance=Part-1-1
 1822, 1825, 1829, 1830, 1858, 1869, 1870, 1884, 1893, 1931, 2356, 2361, 2407, 2413, 2416, 2441
 2528, 2540, 2647, 2664, 2697, 2776, 2787, 3104, 3106, 3107, 3165, 3168, 3169, 4006, 4061, 4066
 4076, 4130, 4677, 4835, 4928, 4942, 4951, 5277, 5320, 5405, 6169, 6172, 6175, 6179, 6180, 6181
 6187, 6220, 6237, 6245, 6283, 6284, 6285
*Elset, elset=_outer_cooldown1_S1, internal, instance=Part-1-1
 1823, 1827, 1835, 1863, 1865, 1866, 1880, 1886, 1918, 1942, 1996, 2392, 2403, 2408, 2457, 2532
 2567, 2631, 2648, 2775, 2781, 2794, 3100, 3102, 3103, 3105, 3166, 3167, 4005, 4007, 4008, 4059
 4069, 4071, 4072, 4074, 4075, 4077, 4148, 4149, 4189, 4197, 4706, 4783, 4839, 4926, 4929, 4943
 4944, 4950, 5309, 5319, 5321, 5383, 5392, 6171, 6173, 6176, 6188, 6192, 6232, 6286, 6287, 6295
 6336,
*Surface, type=ELEMENT, name=outer_cooldown1
_outer_cooldown1_S2, S2
_outer_cooldown1_S4, S4
_outer_cooldown1_S3, S3
_outer_cooldown1_S1, S1
*Elset, elset=_outer_cooldown2_S3, internal, instance=Part-1-1
 1772, 1775, 1776, 1786, 1791, 1822, 1825, 1829, 1830, 1858, 1869, 1870, 1884, 1893, 1931, 2016
 2020, 2025, 2026, 2036, 2039, 2040, 2056, 2058, 2060, 2064, 2068, 2087, 2196, 2202, 2204, 2238
 2407, 2413, 2416, 2441, 2528, 2540, 2647, 2664, 2697, 2776, 2787, 3104, 3106, 3107, 3165, 3168
 3169, 4835, 4928, 4942, 4951, 5277, 5320, 5405, 6169, 6172, 6175, 6179, 6180, 6181, 6187, 6220
 6237, 6245, 6283, 6284, 6285
*Elset, elset=_outer_cooldown2_S1, internal, instance=Part-1-1
 1774, 1781, 1805, 1823, 1827, 1835, 1863, 1865, 1866, 1880, 1886, 1918, 1942, 1996, 2005, 2007
 2011, 2013, 2015, 2022, 2053, 2063, 2078, 2079, 2085, 2139, 2162, 2185, 2187, 2189, 2194, 2197
 2201, 2226, 2233, 2246, 2248, 2392, 2403, 2408, 2457, 2532, 2567, 2631, 2648, 2775, 2781, 2794
 3100, 3102, 3103, 3105, 3166, 3167, 4706, 4783, 4839, 4926, 4929, 4943, 4944, 4950, 5309, 5319
 5321, 5383, 5392, 6171, 6173, 6176, 6188, 6192, 6232, 6286, 6287, 6295, 6336
*Elset, elset=_outer_cooldown2_S2, internal, instance=Part-1-1
    3,    6,    9,   12,   15,   18,   21,   24,   27,   30,   33,   36,   39,   42,   45,   48
   51,   54,   57,   60,   63,   66,   69,   72,   75,   78,   81,   84,   87,   90,   93,   96
   99,  102,  105,  108,  111,  114,  117,  120,  123,  126,  129,  132,  135,  138,  141,  144
  147,  150,  153,  156,  159,  162,  165,  168,  171,  174,  177,  180,  183,  186,  189,  192
  195,  198,  201,  204,  207,  210,  213,  216,  219,  222,  225,  228,  231,  234,  237,  240
  243,  246,  249,  252,  255,  258,  261,  264,  267,  270,  273,  276,  279,  282,  285,  288
  291,  294,  297,  300,  303,  306,  309,  312,  315,  318,  321,  324,  327,  330,  333,  336
  339,  342,  345,  348,  351,  354,  357,  360,  363,  366,  369,  372,  375,  378,  381,  384
  387,  390,  393,  396,  399,  402,  405,  408,  411,  414,  417,  420,  423,  426,  429,  432
  435,  438,  441,  444,  447,  450,  453,  456,  459,  462,  465,  468,  471,  474,  477,  480
  483,  486,  489,  492,  495,  498,  501,  504,  507,  510,  513,  516,  519,  522,  525,  528
  531,  534,  537,  540,  543,  546,  549,  552,  555,  558,  561,  564,  567,  570,  573,  576
  579,  582,  585,  588,  591,  594,  597,  600,  603,  606,  609,  612,  615,  618,  621,  624
  627,  630,  633,  636,  639,  642,  645,  648,  651,  654,  657,  660,  663,  666,  669,  672
  675,  678,  681,  684,  687,  690,  693,  696,  699,  702,  705,  708,  711,  714,  717,  720
  723,  726,  729,  732,  735,  738,  741,  744,  747,  750,  753,  756,  759,  762,  765,  768
  771,  774,  777,  780,  783,  786,  789,  792,  795,  798,  801,  804,  807,  810,  813,  816
  819,  822,  825,  828,  831,  834,  837,  840,  843,  846,  849,  852,  855,  858,  861,  864
  867,  870,  873,  876,  879,  882,  885,  888,  891,  894,  897,  900,  903,  906,  909,  912
  915,  918,  921,  924,  927,  930,  933,  936,  939,  942,  945,  948,  951,  954,  957,  960
** ... 21 like lines cut
*Elset, elset=_outer_cooldown2_S4, internal, instance=Part-1-1
    1,    4,    7,   10,   13,   16,   19,   22,   25,   28,   31,   34,   37,   40,   43,   46
   49,   52,   55,   58,   61,   64,   67,   70,   73,   76,   79,   82,   85,   88,   91,   94
   97,  100,  103,  106,  109,  112,  115,  118,  121,  124,  127,  130,  133,  136,  139,  142
  145,  148,  151,  154,  157,  160,  163,  166,  169,  172,  175,  178,  181,  184,  187,  190
  193,  196,  199,  202,  205,  208,  211,  214,  217,  220,  223,  226,  229,  232,  235,  238
  241,  244,  247,  250,  253,  256,  259,  262,  265,  268,  271,  274,  277,  280,  283,  286
  289,  292,  295,  298,  301,  304,  307,  310,  313,  316,  319,  322,  325,  328,  331,  334
  337,  340,  343,  346,  349,  352,  355,  358,  361,  364,  367,  370,  373,  376,  379,  382
  385,  388,  391,  394,  397,  400,  403,  406,  409,  412,  415,  418,  421,  424,  427,  430
  433,  436,  439,  442,  445,  448,  451,  454,  457,  460,  463,  466,  469,  472,  475,  478
  481,  484,  487,  490,  493,  496,  499,  502,  505,  508,  511,  514,  517,  520,  523,  526
  529,  532,  535,  538,  541,  544,  547,  550,  553,  556,  559,  562,  565,  568,  571,  574
  577,  580,  583,  586,  589,  592,  595,  598,  601,  604,  607,  610,  613,  616,  619,  622
  625,  628,  631,  634,  637,  640,  643,  646,  649,  652,  655,  658,  661,  664,  667,  670
  673,  676,  679,  682,  685,  688,  691,  694,  697,  700,  703,  706,  709,  712,  715,  718
  721,  724,  727,  730,  733,  736,  739,  742,  745,  748,  751,  754,  757,  760,  763,  766
  769,  772,  775,  778,  781,  784,  787,  790,  793,  796,  799,  802,  805,  808,  811,  814
  817,  820,  823,  826,  829,  832,  835,  838,  841,  844,  847,  850,  853,  856,  859,  862
  865,  868,  871,  874,  877,  880,  883,  886,  889,  892,  895,  898,  901,  904,  907,  910
  913,  916,  919,  922,  925,  928,  931,  934,  937,  940,  943,  946,  949,  952,  955,  958
** ... 19 like lines cut
*Surface, type=ELEMENT, name=outer_cooldown2
_outer_cooldown2_S3, S3
_outer_cooldown2_S1, S1
_outer_cooldown2_S2, S2
_outer_cooldown2_S4, S4
*Elset, elset=_outer_heating1_S2, internal, instance=Part-1-1
    3,    6,    9,   12,   15,   18,   21,   24,   27,   30,   33,   36,   39,   42,   45,   48
   51,   54,   57,   60,   63,   66,   69,   72,   75,   78,   81,   84,   87,   90,   93,   96
   99,  102,  105,  108,  111,  114,  117,  120,  123,  126,  129,  132,  135,  138,  141,  144
  147,  150,  153,  156,  159,  162,  165,  168,  171,  174,  177,  180,  183,  186,  189,  192
  195,  198,  201,  204,  207,  210,  213,  216,  219,  222,  225,  228,  231,  234,  237,  240
  243,  246,  249,  252,  255,  258,  261,  264,  267,  270,  273,  276,  279,  282,  285,  288
  291,  294,  297,  300,  303,  306,  309,  312,  315,  318,  321,  324,  327,  330,  333,  336
  339,  342,  345,  348,  351,  354,  357,  360,  363,  366,  369,  372,  375,  378,  381,  384
  387,  390,  393,  396,  399,  402,  405,  408,  411,  414,  417,  420,  423,  426,  429,  432
  435,  438,  441,  444,  447,  450,  453,  456,  459,  462,  465,  468,  471,  474,  477,  480
  483,  486,  489,  492,  495,  498,  501,  504,  507,  510,  513,  516,  519,  522,  525,  528
  531,  534,  537,  540,  543,  546,  549,  552,  555,  558,  561,  564,  567,  570,  573,  576
  579,  582,  585,  588,  591,  594,  597,  600,  603,  606,  609,  612,  615,  618,  621,  624
  627,  630,  633,  636,  639,  642,  645,  648,  651,  654,  657,  660,  663,  666,  669,  672
  675,  678,  681,  684,  687,  690,  693,  696,  699,  702,  705,  708,  711,  714,  717,  720
  723,  726,  729,  732,  735,  738,  741,  744,  747,  750,  753,  756,  759,  762,  765,  768
  771,  774,  777,  780,  783,  786,  789,  792,  795,  798,  801,  804,  807,  810,  813,  816
  819,  822,  825,  828,  831,  834,  837,  840,  843,  846,  849,  852,  855,  858,  861,  864
  867,  870,  873,  876,  879,  882,  885,  888,  891,  894,  897,  900,  903,  906,  909,  912
  915,  918,  921,  924,  927,  930,  933,  936,  939,  942,  945,  948,  951,  954,  957,  960
** ... 20 like lines cut
*Elset, elset=_outer_heating1_S4, internal, instance=Part-1-1
    1,    4,    7,   10,   13,   16,   19,   22,   25,   28,   31,   34,   37,   40,   43,   46
   49,   52,   55,   58,   61,   64,   67,   70,   73,   76,   79,   82,   85,   88,   91,   94
   97,  100,  103,  106,  109,  112,  115,  118,  121,  124,  127,  130,  133,  136,  139,  142
  145,  148,  151,  154,  157,  160,  163,  166,  169,  172,  175,  178,  181,  184,  187,  190
  193,  196,  199,  202,  205,  208,  211,  214,  217,  220,  223,  226,  229,  232,  235,  238
  241,  244,  247,  250,  253,  256,  259,  262,  265,  268,  271,  274,  277,  280,  283,  286
  289,  292,  295,  298,  301,  304,  307,  310,  313,  316,  319,  322,  325,  328,  331,  334
  337,  340,  343,  346,  349,  352,  355,  358,  361,  364,  367,  370,  373,  376,  379,  382
  385,  388,  391,  394,  397,  400,  403,  406,  409,  412,  415,  418,  421,  424,  427,  430
  433,  436,  439,  442,  445,  448,  451,  454,  457,  460,  463,  466,  469,  472,  475,  478
  481,  484,  487,  490,  493,  496,  499,  502,  505,  508,  511,  514,  517,  520,  523,  526
  529,  532,  535,  538,  541,  544,  547,  550,  553,  556,  559,  562,  565,  568,  571,  574
  577,  580,  583,  586,  589,  592,  595,  598,  601,  604,  607,  610,  613,  616,  619,  622
  625,  628,  631,  634,  637,  640,  643,  646,  649,  652,  655,  658,  661,  664,  667,  670
  673,  676,  679,  682,  685,  688,  691,  694,  697,  700,  703,  706,  709,  712,  715,  718
  721,  724,  727,  730,  733,  736,  739,  742,  745,  748,  751,  754,  757,  760,  763,  766
  769,  772,  775,  778,  781,  784,  787,  790,  793,  796,  799,  802,  805,  808,  811,  814
  817,  820,  823,  826,  829,  832,  835,  838,  841,  844,  847,  850,  853,  856,  859,  862
  865,  868,  871,  874,  877,  880,  883,  886,  889,  892,  895,  898,  901,  904,  907,  910
  913,  916,  919,  922,  925,  928,  931,  934,  937,  940,  943,  946,  949,  952,  955,  958
** ... 19 like lines cut
*Elset, elset=_outer_heating1_S3, internal, instance=Part-1-1
 1822, 1825, 1829, 1830, 1858, 1869, 1870, 1884, 1893, 1931, 2356, 2361, 2407, 2413, 2416, 2441
 2528, 2540, 2647, 2664, 2697, 2776, 2787, 3104, 3106, 3107, 3165, 3168, 3169, 4006, 4061, 4066
 4076, 4130, 4677, 4835, 4928, 4942, 4951, 5277, 5320, 5405
*Elset, elset=_outer_heating1_S1, internal, instance=Part-1-1
 1823, 1827, 1835, 1863, 1865, 1866, 1880, 1886, 1918, 1942, 1996, 2392, 2403, 2408, 2457, 2532
 2567, 2631, 2648, 2775, 2781, 2794, 3100, 3102, 3103, 3105, 3166, 3167, 4005, 4007, 4008, 4059
 4069, 4071, 4072, 4074, 4075, 4077, 4148, 4149, 4189, 4197, 4706, 4783, 4839, 4926, 4929, 4943
 4944, 4950, 5309, 5319, 5321, 5383, 5392
*Surface, type=ELEMENT, name=outer_heating1
_outer_heating1_S2, S2
_outer_heating1_S4, S4
_outer_heating1_S3, S3
_outer_heating1_S1, S1
*Elset, elset=_outer_heating2_S2, internal, instance=Part-1-1
    3,    6,    9,   12,   15,   18,   21,   24,   27,   30,   33,   36,   39,   42,   45,   48
   51,   54,   57,   60,   63,   66,   69,   72,   75,   78,   81,   84,   87,   90,   93,   96
   99,  102,  105,  108,  111,  114,  117,  120,  123,  126,  129,  132,  135,  138,  141,  144
  147,  150,  153,  156,  159,  162,  165,  168,  171,  174,  177,  180,  183,  186,  189,  192
  195,  198,  201,  204,  207,  210,  213,  216,  219,  222,  225,  228,  231,  234,  237,  240
  243,  246,  249,  252,  255,  258,  261,  264,  267,  270,  273,  276,  279,  282,  285,  288
  291,  294,  297,  300,  303,  306,  309,  312,  315,  318,  321,  324,  327,  330,  333,  336
  339,  342,  345,  348,  351,  354,  357,  360,  363,  366,  369,  372,  375,  378,  381,  384
  387,  390,  393,  396,  399,  402,  405,  408,  411,  414,  417,  420,  423,  426,  429,  432
  435,  438,  441,  444,  447,  450,  453,  456,  459,  462,  465,  468,  471,  474,  477,  480
  483,  486,  489,  492,  495,  498,  501,  504,  507,  510,  513,  516,  519,  522,  525,  528
  531,  534,  537,  540,  543,  546,  549,  552,  555,  558,  561,  564,  567,  570,  573,  576
  579,  582,  585,  588,  591,  594,  597,  600,  603,  606,  609,  612,  615,  618,  621,  624
  627,  630,  633,  636,  639,  642,  645,  648,  651,  654,  657,  660,  663,  666,  669,  672
  675,  678,  681,  684,  687,  690,  693,  696,  699,  702,  705,  708,  711,  714,  717,  720
  723,  726,  729,  732,  735,  738,  741,  744,  747,  750,  753,  756,  759,  762,  765,  768
  771,  774,  777,  780,  783,  786,  789,  792,  795,  798,  801,  804,  807,  810,  813,  816
  819,  822,  825,  828,  831,  834,  837,  840,  843,  846,  849,  852,  855,  858,  861,  864
  867,  870,  873,  876,  879,  882,  885,  888,  891,  894,  897,  900,  903,  906,  909,  912
  915,  918,  921,  924,  927,  930,  933,  936,  939,  942,  945,  948,  951,  954,  957,  960
** ... 21 like lines cut
*Elset, elset=_outer_heating2_S4, internal, instance=Part-1-1
    1,    4,    7,   10,   13,   16,   19,   22,   25,   28,   31,   34,   37,   40,   43,   46
   49,   52,   55,   58,   61,   64,   67,   70,   73,   76,   79,   82,   85,   88,   91,   94
   97,  100,  103,  106,  109,  112,  115,  118,  121,  124,  127,  130,  133,  136,  139,  142
  145,  148,  151,  154,  157,  160,  163,  166,  169,  172,  175,  178,  181,  184,  187,  190
  193,  196,  199,  202,  205,  208,  211,  214,  217,  220,  223,  226,  229,  232,  235,  238
  241,  244,  247,  250,  253,  256,  259,  262,  265,  268,  271,  274,  277,  280,  283,  286
  289,  292,  295,  298,  301,  304,  307,  310,  313,  316,  319,  322,  325,  328,  331,  334
  337,  340,  343,  346,  349,  352,  355,  358,  361,  364,  367,  370,  373,  376,  379,  382
  385,  388,  391,  394,  397,  400,  403,  406,  409,  412,  415,  418,  421,  424,  427,  430
  433,  436,  439,  442,  445,  448,  451,  454,  457,  460,  463,  466,  469,  472,  475,  478
  481,  484,  487,  490,  493,  496,  499,  502,  505,  508,  511,  514,  517,  520,  523,  526
  529,  532,  535,  538,  541,  544,  547,  550,  553,  556,  559,  562,  565,  568,  571,  574
  577,  580,  583,  586,  589,  592,  595,  598,  601,  604,  607,  610,  613,  616,  619,  622
  625,  628,  631,  634,  637,  640,  643,  646,  649,  652,  655,  658,  661,  664,  667,  670
  673,  676,  679,  682,  685,  688,  691,  694,  697,  700,  703,  706,  709,  712,  715,  718
  721,  724,  727,  730,  733,  736,  739,  742,  745,  748,  751,  754,  757,  760,  763,  766
  769,  772,  775,  778,  781,  784,  787,  790,  793,  796,  799,  802,  805,  808,  811,  814
  817,  820,  823,  826,  829,  832,  835,  838,  841,  844,  847,  850,  853,  856,  859,  862
  865,  868,  871,  874,  877,  880,  883,  886,  889,  892,  895,  898,  901,  904,  907,  910
  913,  916,  919,  922,  925,  928,  931,  934,  937,  940,  943,  946,  949,  952,  955,  958
** ... 19 like lines cut
*Elset, elset=_outer_heating2_S3, internal, instance=Part-1-1
 1822, 1825, 1829, 1830, 1858, 1869, 1870, 1884, 1893, 1931, 2407, 2413, 2416, 2441, 2528, 2540
 2647, 2664, 2697, 2776, 2787, 3104, 3106, 3107, 3165, 3168, 3169, 4835, 4928, 4942, 4951, 5277
 5320, 5405, 6169, 6172, 6175, 6179, 6180, 6181, 6187, 6220, 6237, 6245, 6283, 6284, 6285
*Elset, elset=_outer_heating2_S1, internal, instance=Part-1-1
 1823, 1827, 1835, 1863, 1865, 1866, 1880, 1886, 1918, 1942, 1996, 2392, 2403, 2408, 2457, 2532
 2567, 2631, 2648, 2775, 2781, 2794, 3100, 3102, 3103, 3105, 3166, 3167, 4706, 4783, 4839, 4926
 4929, 4943, 4944, 4950, 5309, 5319, 5321, 5383, 5392, 6171, 6173, 6176, 6188, 6192, 6232, 6286
 6287, 6295, 6336
*Surface, type=ELEMENT, name=outer_heating2
_outer_heating2_S2, S2
_outer_heating2_S4, S4
_outer_heating2_S3, S3
_outer_heating2_S1, S1
*End Assembly
*Amplitude, name=Constant
             0.,              1.,              1.,              1.
** 
** MATERIALS
** 
*Material, name=Base_X60_1_CR1
*Conductivity
 0.048357,  25.
 0.048336,  30.
 0.048313,  35.
 0.048287,  40.
 0.048258,  45.
 0.048226,  50.
 0.048192,  55.
 0.048155,  60.
 0.048114,  65.
 0.048071,  70.
 0.048026,  75.
 0.047978,  80.
 0.047927,  85.
 0.047873,  90.
 0.047817,  95.
 0.047758, 100.
 0.047696, 105.
 0.047632, 110.
 0.047566, 115.
 0.047497, 120.
** ... 294 like lines cut
*Density
 0.007834,  25.
 0.007832,  30.
 0.007831,  35.
  0.00783,  40.
 0.007828,  45.
 0.007827,  50.
 0.007825,  55.
 0.007824,  60.
 0.007822,  65.
 0.007821,  70.
 0.007819,  75.
 0.007818,  80.
 0.007816,  85.
 0.007815,  90.
 0.007813,  95.
 0.007812, 100.
  0.00781, 105.
 0.007808, 110.
 0.007807, 115.
 0.007805, 120.
** ... 294 like lines cut
*Depvar
     14,
*Specific Heat
  0.44661, 25.
  0.44885, 30.
  0.45106, 35.
  0.45323, 40.
  0.45538, 45.
   0.4575, 50.
   0.4596, 55.
  0.46167, 60.
  0.46373, 65.
  0.46577, 70.
  0.46779, 75.
  0.46981, 80.
  0.47181, 85.
   0.4738, 90.
  0.47579, 95.
  0.47777,100.
  0.47975,105.
  0.48172,110.
  0.48369,115.
  0.48566,120.
** ... 140 like lines cut
*User Defined Field
*Material, name=Base_X60_1_CR10
*Conductivity
 0.048989,  25.
 0.048958,  30.
 0.048925,  35.
 0.048889,  40.
  0.04885,  45.
 0.048808,  50.
 0.048764,  55.
 0.048716,  60.
 0.048667,  65.
 0.048614,  70.
 0.048559,  75.
 0.048501,  80.
 0.048441,  85.
 0.048378,  90.
 0.048312,  95.
 0.048244, 100.
 0.048174, 105.
 0.048101, 110.
 0.048026, 115.
 0.047948, 120.
** ... 294 like lines cut
*Density
 0.007834,  25.
 0.007833,  30.
 0.007831,  35.
  0.00783,  40.
 0.007828,  45.
 0.007827,  50.
 0.007825,  55.
 0.007824,  60.
 0.007822,  65.
 0.007821,  70.
 0.007819,  75.
 0.007818,  80.
 0.007816,  85.
 0.007815,  90.
 0.007813,  95.
 0.007812, 100.
  0.00781, 105.
 0.007809, 110.
 0.007807, 115.
 0.007806, 120.
** ... 294 like lines cut
*Depvar
     14,
*Specific Heat
  0.44661, 25.
  0.44885, 30.
  0.45106, 35.
  0.45323, 40.
  0.45538, 45.
   0.4575, 50.
   0.4596, 55.
  0.46167, 60.
  0.46373, 65.
  0.46577, 70.
  0.46779, 75.
  0.46981, 80.
  0.47181, 85.
   0.4738, 90.
  0.47579, 95.
  0.47777,100.
  0.47975,105.
  0.48172,110.
  0.48369,115.
  0.48566,120.
** ... 140 like lines cut
*User Defined Field
*Material, name=Base_X60_1_CR100
*Conductivity
 0.047232,  25.
 0.047246,  30.
 0.047257,  35.
 0.047264,  40.
 0.047267,  45.
 0.047268,  50.
 0.047265,  55.
 0.047258,  60.
 0.047248,  65.
 0.047234,  70.
 0.047217,  75.
 0.047197,  80.
 0.047172,  85.
 0.047144,  90.
 0.047113,  95.
 0.047078, 100.
 0.047039, 105.
 0.046997, 110.
 0.046951, 115.
 0.046901, 120.
** ... 294 like lines cut
*Density
 0.007817,  25.
 0.007816,  30.
 0.007814,  35.
 0.007813,  40.
 0.007811,  45.
  0.00781,  50.
 0.007808,  55.
 0.007807,  60.
 0.007805,  65.
 0.007804,  70.
 0.007803,  75.
 0.007801,  80.
   0.0078,  85.
 0.007798,  90.
 0.007797,  95.
 0.007795, 100.
 0.007794, 105.
 0.007792, 110.
  0.00779, 115.
 0.007789, 120.
** ... 294 like lines cut
*Depvar
     14,
*Specific Heat
 0.446611, 25.
 0.448851, 30.
 0.451061, 35.
 0.453231, 40.
 0.455381, 45.
 0.457501, 50.
 0.459601, 55.
 0.461671, 60.
 0.463731, 65.
 0.465771, 70.
  0.46779, 75.
  0.46981, 80.
 0.471809, 85.
 0.473799, 90.
 0.475788, 95.
 0.477767,100.
 0.479745,105.
 0.481714,110.
 0.483682,115.
  0.48565,120.
** ... 140 like lines cut
*User Defined Field
*Material, name=Base_X60_1_umatht
*Density
1.,   0.
1.,1000.
*Depvar
     14,
*User Defined Field
*User Material, constants=1, type=THERMAL
0.,
*Time Points, name=TimePoints-1, GENERATE
0.5, 20., 0.5
20., 25., 2.5
25., 50., 5.
60., 100., 10.
130., 600., 30.
700., 2000., 100.
** 
** PHYSICAL CONSTANTS
** 
*Physical Constants, absolute zero=-273.15, stefan boltzmann=5.67e-14
** 
** PREDEFINED FIELDS
** 
** Name: Gsize1_Weld   Type: Field
*Initial Conditions, type=FIELD, variable=6
Part-1-1.Weld, 100.
** Name: Gsize2_Base   Type: Field
*Initial Conditions, type=FIELD, variable=6
Part-1-1.Base, 30.
** Name: Hardness   Type: Field
*Initial Conditions, type=FIELD, variable=7
Part-1-1.All, 165.
** Name: frac_a   Type: Field
*Initial Conditions, type=FIELD, variable=5
Part-1-1.Weld, 1.
** Name: frac_f   Type: Field
*Initial Conditions, type=FIELD, variable=1
Part-1-1.Base, 1.
** Name: frac_p   Type: Field
*Initial Conditions, type=FIELD, variable=2
Part-1-1.Base, 1.
** Name: last_field   Type: Field
*Initial Conditions, type=FIELD, variable=8
Part-1-1.All, 0.
** Name: temp1_weld   Type: Temperature
*Initial Conditions, type=TEMPERATURE
Part-1-1.Weld, 1500.
** Name: temp2_base   Type: Temperature
*Initial Conditions, type=TEMPERATURE
Part-1-1.Base, 20.
** ----------------------------------------------------------------
** 
** STEP: Step1_Initial
** 
*Step, name=Step1_Initial, nlgeom=NO
*Heat Transfer, end=PERIOD
1e-10, 1e-10, , ,
** 
** INTERACTIONS
** 
** Interaction: weld1
*Model Change, remove
Part-1-1.Weld1, 
** Interaction: weld2
*Model Change, remove
Part-1-1.Weld2, 
** Interaction: convection_heating1
*Sfilm, amplitude=Constant
outer_heating1, F, 20., 2.5e-05
** Interaction: radiation_heating1
*Sradiate, amplitude=Constant
outer_heating1, R, 20., 0.8
** 
** CONTROLS
** 
*Controls, reset
*Controls, parameters=time incrementation
20, 20, , , , , , , , , 
** 
** OUTPUT REQUESTS
** 
*Restart, write, frequency=0
** 
** FIELD OUTPUT: F-Output-Intpoints
** 
*Output, field, frequency=99999
*Element Output, directions=YES
FV, 
** 
** FIELD OUTPUT: F-Output-Nodes
** 
*Node Output
NT, 
*Element Output, position=AVERAGED AT NODES, directions=YES
FV, 
*Output, history, frequency=0
*End Step
** ----------------------------------------------------------------
** 
** STEP: Step2_Heating1
** 
*Step, name=Step2_Heating1, nlgeom=NO, amplitude=RAMP, inc=100000
*Heat Transfer, end=PERIOD, deltmx=100.
0.01, 3., 1e-50, 0.1, 
** 
** BOUNDARY CONDITIONS
** 
** Name: heating1 Type: Temperature
*Boundary
heating1, 11, 11, 1500.
** 
** OUTPUT REQUESTS
** 
*Restart, write, frequency=0
** 
** FIELD OUTPUT: F-Output-Intpoints
** 
*Output, field, frequency=99999
*Element Output, directions=YES
FV, 
** 
** FIELD OUTPUT: F-Output-Nodes
** 
*Output, field, number interval=10
*Node Output
NT, 
*Element Output, position=AVERAGED AT NODES, directions=YES
FV, 
*Output, history, frequency=0
*End Step
** ----------------------------------------------------------------
** 
** STEP: Step3_Insert1
** 
*Step, name=Step3_Insert1, nlgeom=NO, inc=10000
*Heat Transfer, end=PERIOD, deltmx=50.
1e-10, 1e-10, 1e-15, 1e-10, 
** 
** INTERACTIONS
** 
** Interaction: weld1
*Model Change, add
Part-1-1.Weld1, 
** Interaction: convection_cooldown1
*Sfilm, amplitude=Constant, op=NEW
outer_cooldown1, F, 20., 2.5e-05
** Interaction: convection_heating1
*Sfilm, op=NEW
** Interaction: radiation_cooldown1
*Sradiate, op=NEW
outer_cooldown1, R, 20., 0.8
** Interaction: radiation_heating1
*Sradiate, op=NEW
** 
** OUTPUT REQUESTS
** 
*Restart, write, frequency=0
** 
** FIELD OUTPUT: F-Output-Intpoints
** 
*Output, field, frequency=99999
*Element Output, directions=YES
FV, 
** 
** FIELD OUTPUT: F-Output-Nodes
** 
*Node Output
NT, 
*Element Output, position=AVERAGED AT NODES, directions=YES
FV, 
*Output, history, frequency=0
*End Step
** ----------------------------------------------------------------
** 
** STEP: Step4_Cooldown1
** 
*Step, name=Step4_Cooldown1, nlgeom=NO, inc=10000
*Heat Transfer, end=PERIOD, deltmx=50.
0.0001, 120., 1e-10, 120., 
** 
** BOUNDARY CONDITIONS
** 
** Name: heating1 Type: Temperature
*Boundary, op=NEW
** 
** OUTPUT REQUESTS
** 
*Restart, write, frequency=0
** 
** FIELD OUTPUT: F-Output-Intpoints
** 
*Output, field, frequency=99999
*Element Output, directions=YES
FV, 
** 
** FIELD OUTPUT: F-Output-Nodes
** 
*Output, field, time points=TimePoints-1
*Node Output
NT, 
*Element Output, position=AVERAGED AT NODES, directions=YES
FV, 
*Output, history, frequency=0
*End Step
** ----------------------------------------------------------------
** 
** STEP: Step5_Heating2
** 
*Step, name=Step5_Heating2, nlgeom=NO, amplitude=RAMP, inc=10000
*Heat Transfer, end=PERIOD, deltmx=50.
0.01, 3., 1e-10, 3., 
** 
** BOUNDARY CONDITIONS
** 
** Name: heating2 Type: Temperature
*Boundary
heating2, 11, 11, 1500.
** 
** INTERACTIONS
** 
** Interaction: convection_cooldown1
*Sfilm, op=NEW
** Interaction: convection_heating2
*Sfilm, amplitude=Constant, op=NEW
outer_heating2, F, 20., 2.5e-05
** Interaction: radiation_cooldown1
*Sradiate, op=NEW
** Interaction: radiation_heating2
*Sradiate, amplitude=Constant, op=NEW
outer_heating2, R, 20., 0.8
** 
** OUTPUT REQUESTS
** 
*Restart, write, frequency=0
** 
** FIELD OUTPUT: F-Output-Intpoints
** 
*Output, field, frequency=99999
*Element Output, directions=YES
FV, 
** 
** FIELD OUTPUT: F-Output-Nodes
** 
*Output, field, number interval=10
*Node Output
NT, 
*Element Output, position=AVERAGED AT NODES, directions=YES
FV, 
*Output, history, frequency=0
*End Step
** ----------------------------------------------------------------
** 
** STEP: Step6_Insert2
** 
*Step, name=Step6_Insert2, nlgeom=NO, inc=10000
*Heat Transfer, end=PERIOD, deltmx=50.
1e-10, 1e-10, 1e-15, 1e-10, 
** 
** INTERACTIONS
** 
** Interaction: weld2
*Model Change, add
Part-1-1.Weld2, 
** Interaction: convection_cooldown2
*Sfilm, amplitude=Constant, op=NEW
outer_cooldown2, F, 20., 2.5e-05
** Interaction: convection_heating2
*Sfilm, op=NEW
** Interaction: radiation_cooldown2
*Sradiate, op=NEW
outer_cooldown2, R, 20., 0.8
** Interaction: radiation_heating2
*Sradiate, op=NEW
** 
** OUTPUT REQUESTS
** 
*Restart, write, frequency=0
** 
** FIELD OUTPUT: F-Output-Intpoints
** 
*Output, field, frequency=99999
*Element Output, directions=YES
FV, 
** 
** FIELD OUTPUT: F-Output-Nodes
** 
*Node Output
NT, 
*Element Output, position=AVERAGED AT NODES, directions=YES
FV, 
*Output, history, frequency=0
*End Step
** ----------------------------------------------------------------
** 
** STEP: Step7_Cooldown2a
** 
*Step, name=Step7_Cooldown2a, nlgeom=NO, inc=10000
*Heat Transfer, end=PERIOD, deltmx=5.
0.0001, 120., 1e-10, 10., 
** 
** BOUNDARY CONDITIONS
** 
** Name: heating2 Type: Temperature
*Boundary, op=NEW
** 
** OUTPUT REQUESTS
** 
*Restart, write, frequency=0
** 
** FIELD OUTPUT: F-Output-Intpoints
** 
*Output, field, frequency=99999
*Element Output, directions=YES
FV, 
** 
** FIELD OUTPUT: F-Output-Nodes
** 
*Output, field, time points=TimePoints-1
*Node Output
NT, 
*Element Output, position=AVERAGED AT NODES, directions=YES
FV, 
*Output, history, frequency=0
*End Step
** ----------------------------------------------------------------
** 
** STEP: Step8_Cooldown2b
** 
*Step, name=Step8_Cooldown2b, nlgeom=NO, inc=10000
*Heat Transfer, end=PERIOD, deltmx=50.
10., 3600., 0.036, 20., 
** 
** OUTPUT REQUESTS
** 
*Restart, write, frequency=0
** 
** FIELD OUTPUT: F-Output-Intpoints
** 
*Output, field, frequency=99999
*Element Output, directions=YES
FV, 
** 
** FIELD OUTPUT: F-Output-Nodes
** 
*Output, field, number interval=10
*Node Output
NT, 
*Element Output, position=AVERAGED AT NODES, directions=YES
FV, 
*Output, history, frequency=0
*End Step
