 Abaqus/Standard Unofficial Packaging Version                  DATE 15-aug-2024 TIME 23:55:23
 SUMMARY OF JOB INFORMATION:
 STEP  INC ATT SEVERE EQUIL TOTAL  TOTAL      STEP       INC OF       DOF    IF
               DISCON ITERS ITERS  TIME/    TIME/LPF    TIME/LPF    MONITOR RIKS
               ITERS               FREQ
   1     1   1     0     1     1  1.00       1.00       1.000     
   1     2   1     0     1     1  2.00       2.00       1.000     
   1     3   1     0     1     1  3.00       3.00       1.000     
   1     4   1     0     1     1  4.00       4.00       1.000     
   1     5   1     0     1     1  5.00       5.00       1.000     
   1     6   1     0     1     1  6.00       6.00       1.000     
   1     7   1     0     1     1  7.00       7.00       1.000     
   1     8   1     0     1     1  8.00       8.00       1.000     
   1     9   1     0     1     1  9.00       9.00       1.000     
   1    10   1     0     1     1  10.0       10.0       1.000     
   2     1   1     0     1     1  11.0       1.00       1.000     
   2     2   1     0     1     1  12.0       2.00       1.000     
   2     3   1     0     1     1  13.0       3.00       1.000     
   2     4   1     0     1     1  14.0       4.00       1.000     
   2     5   1     0     1     1  15.0       5.00       1.000     
   2     6   1     0     1     1  16.0       6.00       1.000     
   2     7   1     0     1     1  17.0       7.00       1.000     
   2     8   1     0     1     1  18.0       8.00       1.000     
   2     9   1     0     1     1  19.0       9.00       1.000     
   2    10   1     0     1     1  20.0       10.0       1.000     
                          
 THE ANALYSIS HAS COMPLETED SUCCESSFULLY
