*Heading
** Job name: Job-1 Model name: Model-1
** Generated by: Abaqus/CAE Unofficial Packaging Version
*Preprint, echo=NO, model=NO, history=NO, contact=NO
**
** PARTS
**
*Part, name=Part-1
*Node
      1,           0.,           0.
      2,           1.,           0.
      3,           2.,           0.
      4,           3.,           0.
      5,           4.,           0.
      6,           5.,           0.
      7,           6.,           0.
      8,           7.,           0.
      9,           8.,           0.
     10,           9.,           0.
     11,          10.,           0.
     12,          11.,           0.
     13,          12.,           0.
     14,          13.,           0.
     15,          14.,           0.
     16,          15.,           0.
     17,          16.,           0.
     18,          17.,           0.
     19,          18.,           0.
     20,          19.,           0.
** ... 211 like lines cut
*Element, type=DC2D4
  1,   1,   2,  23,  22
  2,   2,   3,  24,  23
  3,   3,   4,  25,  24
  4,   4,   5,  26,  25
  5,   5,   6,  27,  26
  6,   6,   7,  28,  27
  7,   7,   8,  29,  28
  8,   8,   9,  30,  29
  9,   9,  10,  31,  30
 10,  10,  11,  32,  31
 11,  11,  12,  33,  32
 12,  12,  13,  34,  33
 13,  13,  14,  35,  34
 14,  14,  15,  36,  35
 15,  15,  16,  37,  36
 16,  16,  17,  38,  37
 17,  17,  18,  39,  38
 18,  18,  19,  40,  39
 19,  19,  20,  41,  40
 20,  20,  21,  42,  41
** ... 180 like lines cut
*Nset, nset=Set-1, generate
   1,  231,    1
*Elset, elset=Set-1, generate
   1,  200,    1
** Section: Section-1
*Solid Section, elset=Set-1, material=Material-1
,
*End Part
**  
**
** ASSEMBLY
**
*Assembly, name=Assembly
**  
*Instance, name=Part-1-1, part=Part-1
*End Instance
**  
*Nset, nset=Set-1, instance=Part-1-1, generate
   1,  211,   21
*Elset, elset=Set-1, instance=Part-1-1, generate
   1,  181,   20
*End Assembly
** 
** MATERIALS
** 
*Material, name=Material-1
*Conductivity
 0.048,
*Density
 0.0078,
*Specific Heat
 0.45,
** ----------------------------------------------------------------
** 
** STEP: Step-1
** 
*Step, name=Step-1, nlgeom=NO, amplitude=RAMP
*Heat Transfer, end=PERIOD, deltmx=1000.
1., 10., 0.0001, 1., 
** 
** BOUNDARY CONDITIONS
** 
** Name: BC-1 Type: Temperature
*Boundary
Set-1, 11, 11, 1500.
** 
** OUTPUT REQUESTS
** 
*Restart, write, frequency=0
** 
** FIELD OUTPUT: F-Output-1
** 
*Output, field, variable=PRESELECT
*Output, history, frequency=0
*End Step
** ----------------------------------------------------------------
** 
** STEP: Step-2
** 
*Step, name=Step-2, nlgeom=NO
*Heat Transfer, end=PERIOD, deltmx=1000.
1., 10., 0.0001, 1., 
** 
** BOUNDARY CONDITIONS
** 
** Name: BC-1 Type: Temperature
*Boundary, op=NEW
** 
** OUTPUT REQUESTS
** 
*Restart, write, frequency=0
** 
** FIELD OUTPUT: F-Output-1
** 
*Output, field, variable=PRESELECT
*Output, history, frequency=0
*End Step
